Version 4
SHEET 1 1024 680
WIRE -480 -160 -480 -176
WIRE -416 -160 -480 -160
WIRE -480 -144 -480 -160
WIRE -416 -144 -416 -160
WIRE 64 64 32 64
WIRE 160 80 128 80
WIRE 176 80 160 80
WIRE 272 80 272 16
WIRE 272 80 240 80
WIRE 608 80 544 80
WIRE 736 80 688 80
WIRE 64 96 48 96
WIRE 736 96 736 80
WIRE 864 96 736 96
WIRE 608 112 576 112
WIRE -480 144 -608 144
WIRE -256 144 -272 144
WIRE -224 144 -256 144
WIRE 48 240 48 96
WIRE 160 240 48 240
WIRE -256 288 -256 224
WIRE 576 288 576 112
WIRE 736 288 576 288
FLAG -400 208 0
FLAG -256 288 0
FLAG 160 320 0
FLAG 544 144 0
FLAG 736 368 0
FLAG -608 224 0
FLAG 96 112 Vplus
FLAG 96 48 Vminus
FLAG 736 208 Vplus
FLAG 464 80 V_Ap
IOPIN 464 80 In
FLAG -224 144 AP_Basic
IOPIN -224 144 Out
FLAG 32 64 AP_Basic
IOPIN 32 64 In
FLAG 864 96 Vout_AP
IOPIN 864 96 Out
FLAG -480 -64 Vplus
FLAG -480 -256 Vminus
FLAG -416 -144 0
FLAG 272 160 0
FLAG 272 16 V_Ap
IOPIN 272 16 Out
FLAG 688 112 0
FLAG 608 144 Vplus
FLAG 608 176 Vminus
SYMBOL res -496 160 R270
WINDOW 0 32 56 VTop 0
WINDOW 3 0 56 VBottom 0
SYMATTR InstName R1
SYMATTR Value 10k
SYMBOL res -416 160 R270
WINDOW 0 32 56 VTop 0
WINDOW 3 0 56 VBottom 0
SYMATTR InstName R2
SYMATTR Value 1k
SYMBOL res -272 128 R0
WINDOW 0 36 40 Left 0
WINDOW 3 36 76 Left 0
SYMATTR InstName R3
SYMATTR Value 10k
SYMBOL cap -384 208 R180
WINDOW 0 24 56 Left 0
WINDOW 3 24 8 Left 0
SYMATTR InstName C1
SYMATTR Value 22µ
SYMBOL cap -320 160 R270
WINDOW 0 32 32 VTop 0
WINDOW 3 0 32 VBottom 0
SYMATTR InstName C2
SYMATTR Value 0.1µF
SYMBOL res 176 176 R180
WINDOW 0 36 76 Left 0
WINDOW 3 36 40 Left 0
SYMATTR InstName R4
SYMATTR Value 2.3k
SYMBOL res 176 256 R180
WINDOW 0 36 76 Left 0
WINDOW 3 36 40 Left 0
SYMATTR InstName R5
SYMATTR Value 3k
SYMBOL res 176 336 R180
WINDOW 0 36 76 Left 0
WINDOW 3 36 40 Left 0
SYMATTR InstName R6
SYMATTR Value 560
SYMBOL res 448 96 R270
WINDOW 0 32 56 VTop 0
WINDOW 3 0 56 VBottom 0
SYMATTR InstName R8
SYMATTR Value 3.9k
SYMBOL cap 560 144 R180
WINDOW 0 24 56 Left 0
WINDOW 3 24 8 Left 0
SYMATTR InstName C4
SYMATTR Value 0.1µF
SYMBOL res 752 304 R180
WINDOW 0 36 76 Left 0
WINDOW 3 36 40 Left 0
SYMATTR InstName R9
SYMATTR Value 100k
SYMBOL res 752 384 R180
WINDOW 0 36 76 Left 0
WINDOW 3 36 40 Left 0
SYMATTR InstName R10
SYMATTR Value 800
SYMBOL voltage -608 128 R0
WINDOW 0 24 96 Invisible 2
WINDOW 3 -865 21 Left 2
WINDOW 123 0 0 Left 0
WINDOW 39 0 0 Left 0
SYMATTR InstName V1
SYMATTR Value PWL(0 2.5 2.01 2.5 2.0101 5 2.0121 5 2.0122 0 2.0132 0 2.0133 2.5)
SYMBOL OpAmps\\opamp2 96 144 M180
SYMATTR InstName U1
SYMATTR Value lmx58_lm2904
SYMBOL diode -368 272 R0
WINDOW 3 24 64 Invisible 2
SYMATTR Value 1N4148
SYMATTR InstName D1
SYMBOL voltage -480 -48 R180
WINDOW 0 24 96 Invisible 2
WINDOW 3 24 16 Left 2
WINDOW 123 0 0 Left 0
WINDOW 39 0 0 Left 0
SYMATTR InstName V2
SYMATTR Value 7.5
SYMBOL voltage -480 -160 R180
WINDOW 0 24 96 Invisible 2
WINDOW 3 24 16 Left 2
WINDOW 123 0 0 Left 0
WINDOW 39 0 0 Left 0
SYMATTR InstName V3
SYMATTR Value 7.5
SYMBOL cap 176 96 R270
WINDOW 0 32 32 VTop 2
WINDOW 3 0 32 VBottom 2
SYMATTR InstName C3
SYMATTR Value 22µ
SYMBOL res 256 64 R0
WINDOW 0 36 40 Left 0
WINDOW 3 36 76 Left 0
SYMATTR InstName R7
SYMATTR Value 10k
SYMBOL AutoGenerated\\INA118 640 128 R0
SYMATTR InstName U3
TEXT -808 184 Left 2 !.tran 0 2.1 2
TEXT -136 -144 Left 2 !.include lmx58_lm2904.lib
TEXT 184 200 Left 2 ;10k poti\nmin. 1.4 Ohm
TEXT 752 336 Left 2 ;10k poti\nmin 2.6 Ohm
