Version 4
SHEET 1 1148 988
WIRE -992 64 -992 48
WIRE -928 64 -992 64
WIRE -992 80 -992 64
WIRE -928 80 -928 64
WIRE -784 416 -912 416
WIRE -560 416 -560 336
WIRE -320 416 -336 416
WIRE -224 432 -256 432
WIRE -48 432 -64 432
WIRE -32 432 -32 400
WIRE -16 432 -32 432
WIRE -320 448 -384 448
WIRE 96 448 48 448
WIRE 112 448 96 448
WIRE 336 448 320 448
WIRE 560 448 416 448
WIRE 704 448 640 448
WIRE -48 464 -48 432
WIRE -16 464 -48 464
WIRE 560 480 544 480
WIRE 688 480 640 480
WIRE -384 512 -384 448
WIRE -224 512 -224 432
WIRE -224 512 -384 512
WIRE 560 512 464 512
WIRE 560 544 496 544
WIRE -560 560 -560 496
WIRE -48 592 -48 464
WIRE -16 592 -48 592
WIRE 96 592 96 448
WIRE 96 592 64 592
WIRE 464 608 464 512
WIRE 544 656 544 480
WIRE 704 656 544 656
FLAG -704 480 0
FLAG -560 560 0
FLAG -912 496 0
FLAG -560 336 AP_Basic
IOPIN -560 336 Out
FLAG 416 512 0
FLAG 704 736 0
FLAG 464 608 Vplus
FLAG 496 544 Vminus
FLAG 704 576 Vplus
FLAG -336 416 AP_Basic
IOPIN -336 416 In
FLAG 16 480 Vplus
FLAG -288 464 Vplus
FLAG -288 400 Vminus
FLAG 16 416 Vminus
FLAG -32 400 0
FLAG 112 448 V_Fp
IOPIN 112 448 Out
FLAG 320 448 V_Fp
IOPIN 320 448 In
FLAG 704 448 Vout_FP
IOPIN 704 448 Out
FLAG 688 480 0
FLAG -992 160 Vplus
FLAG -992 -32 Vminus
FLAG -928 80 0
SYMBOL res -800 432 R270
WINDOW 0 32 56 VTop 0
WINDOW 3 0 56 VBottom 0
SYMATTR InstName R1
SYMATTR Value 10k
SYMBOL res -720 432 R270
WINDOW 0 32 56 VTop 0
WINDOW 3 0 56 VBottom 0
SYMATTR InstName R2
SYMATTR Value 1k
SYMBOL res -576 400 R0
WINDOW 0 36 40 Left 0
WINDOW 3 36 76 Left 0
SYMATTR InstName R3
SYMATTR Value 10k
SYMBOL cap -688 480 R180
WINDOW 0 24 56 Left 0
WINDOW 3 24 8 Left 0
SYMATTR InstName C1
SYMATTR Value 22µF
SYMBOL cap -624 432 R270
WINDOW 0 32 32 VTop 0
WINDOW 3 0 32 VBottom 0
SYMATTR InstName C2
SYMATTR Value 0.1µF
SYMBOL voltage -912 400 R0
WINDOW 0 24 96 Invisible 2
WINDOW 3 -811 30 Left 2
WINDOW 123 0 0 Left 0
WINDOW 39 0 0 Left 0
SYMATTR InstName V2
SYMATTR Value PWL(0 2.5 2.01 2.5 2.0101 5 2.0121 5 2.0122 0 2.0132 0 2.0133 2.5)
SYMBOL diode -528 496 R0
WINDOW 3 24 64 Invisible 2
SYMATTR Value 1N4148
SYMATTR InstName D1
SYMBOL res 320 464 R270
WINDOW 0 32 56 VTop 0
WINDOW 3 0 56 VBottom 0
SYMATTR InstName R4
SYMATTR Value 3.9k
SYMBOL cap 432 512 R180
WINDOW 0 24 56 Left 0
WINDOW 3 24 8 Left 0
SYMATTR InstName C3
SYMATTR Value 0.1µF
SYMBOL res 720 672 R180
WINDOW 0 36 76 Left 0
WINDOW 3 36 40 Left 0
SYMATTR InstName R5
SYMATTR Value 1Meg
SYMBOL res 720 752 R180
WINDOW 0 36 76 Left 0
WINDOW 3 36 40 Left 0
SYMATTR InstName R6
SYMATTR Value 1.2
SYMBOL OpAmps\\opamp2 -288 496 M180
SYMATTR InstName U1
SYMATTR Value lmx58_lm2904
SYMBOL OpAmps\\opamp2 16 512 M180
SYMATTR InstName U2
SYMATTR Value lmx58_lm2904
SYMBOL res -160 448 R270
WINDOW 0 32 56 VTop 2
WINDOW 3 0 56 VBottom 2
SYMATTR InstName R8
SYMATTR Value 300k
SYMBOL res -32 608 R270
WINDOW 0 32 56 VTop 2
WINDOW 3 0 56 VBottom 2
SYMATTR InstName R9
SYMATTR Value 4.7k
SYMBOL AutoGenerated\\INA118 592 496 R0
SYMATTR InstName U4
SYMBOL voltage -992 176 R180
WINDOW 0 24 96 Invisible 2
WINDOW 3 24 16 Left 2
WINDOW 123 0 0 Left 0
WINDOW 39 0 0 Left 0
SYMATTR InstName V3
SYMATTR Value 7.5
SYMBOL voltage -992 64 R180
WINDOW 0 24 96 Invisible 2
WINDOW 3 24 16 Left 2
WINDOW 123 0 0 Left 0
WINDOW 39 0 0 Left 0
SYMATTR InstName V4
SYMATTR Value 7.5
SYMBOL res -240 448 R270
WINDOW 0 32 56 VTop 0
WINDOW 3 0 56 VBottom 0
SYMATTR InstName R10
SYMATTR Value 1k
TEXT -904 48 Left 2 !.include lmx58_lm2904.lib
TEXT -1128 472 Left 2 !.tran 0 2.1 2
TEXT -904 96 Left 2 !.include INA118.LIB
TEXT 728 680 Left 2 ;1k Poti\nmin 1.2 Ohm
TEXT -104 576 VLeft 2 ;1M Poti
